*HEADING
** HyperMesh Model - Abaqus INP Export
** Source: WS_3.2_3d_tetra_finish.hm
** Generated by hm_parser.py
** Date: 2026-03-22
**
** Model Statistics:
**   Nodes: ~40 extracted (subset)
**   Elements: ~62 extracted (subset)
**   Element Types: TETRA4, HEXA8, PENTA6, QUAD8, TRIA6
**
** NOTE: This is a partial extraction from a proprietary .hm binary file.
**       Complete extraction requires Altair HyperMesh software.
**

*NODE
** Node ID, X, Y, Z
1, 9.311501110E-01, 1.000000000E+00, 1.000000000E+00
2, 0.000000000E+00, 0.000000000E+00, 0.000000000E+00
5, -2.840085030E+01, 0.000000000E+00, 0.000000000E+00
6, 0.000000000E+00, 0.000000000E+00, 0.000000000E+00
8, 0.000000000E+00, 0.000000000E+00, 0.000000000E+00
14, 0.000000000E+00, 0.000000000E+00, 0.000000000E+00
16, 0.000000000E+00, 0.000000000E+00, 0.000000000E+00
32, 0.000000000E+00, 0.000000000E+00, 0.000000000E+00
33, -8.350000000E+02, 3.063058850E+00, 0.000000000E+00
51, 0.000000000E+00, 3.051757810E-05, 7.812501830E-03
60, 0.000000000E+00, 3.051757810E-05, 7.812501830E-03
70, 1.600000000E+01, 0.000000000E+00, 0.000000000E+00
113, -9.160000000E+02, 3.063058850E+00, 0.000000000E+00
118, 0.000000000E+00, 3.844928540E+01, 9.250000000E+01
121, -9.160000000E+02, 0.000000000E+00, 0.000000000E+00
162, -8.510000000E+02, 0.000000000E+00, 0.000000000E+00
167, -8.510000000E+02, 0.000000000E+00, 0.000000000E+00
169, 0.000000000E+00, -1.600000000E+01, 9.250000000E+01
183, -8.510000000E+02, 3.063058850E+00, 0.000000000E+00
239, 0.000000000E+00, 4.248579100E+01, 4.348820100E+01
** ... 7 like lines cut

**
** TETRA4 Elements (C3D4 - 4-node linear tetrahedron)
**
*ELEMENT, TYPE=C3D4
1, 825, 827, 829, 831
2, 826, 877, 875, 873
3, 425, 1582, 1586, 1533
4, 1670, 1683, 1569, 1863
5, 1103, 521, 2059, 2201
6, 2357, 878, 834, 929
7, 2859, 2907, 2909, 2911
8, 3161, 2867, 2906, 3170
9, 4224, 4218, 4195, 1800
10, 1329, 1416, 1864, 378

**
** HEXA8 Elements (C3D8 - 8-node linear hexahedron)
**
*ELEMENT, TYPE=C3D8
101, 424, 426, 428, 430, 425, 427, 429, 431
102, 686, 151, 689, 335, 687, 152, 690, 336
103, 203, 1030, 1050, 1052, 204, 1031, 1051, 1053
104, 1153, 1162, 1135, 1110, 1154, 1163, 1136, 1111
105, 3805, 3814, 3787, 2583, 3806, 3815, 3788, 2584

**
** PENTA6 Elements (C3D6 - 6-node linear pentahedron/wedge)
**
*ELEMENT, TYPE=C3D6
201, 473, 255, 482, 491, 474, 256, 483, 492
202, 945, 983, 1063, 664, 946, 984, 1064, 665
203, 1220, 1270, 1261, 1252, 1221, 1271, 1262, 1253
204, 1881, 1895, 1906, 1212, 1882, 1896, 1907, 1213
205, 1969, 1959, 1271, 1907, 1970, 1960, 1272, 1908

**
** QUAD8 Elements (S8 - 8-node quadrilateral shell)
**
*ELEMENT, TYPE=S8
301, 288, 71, 104, 94, 289, 72, 105, 95
302, 465, 469, 429, 467, 466, 470, 430, 468
303, 298, 349, 546, 544, 299, 350, 547, 545
304, 550, 564, 575, 584, 551, 565, 576, 585
305, 591, 623, 621, 625, 592, 624, 622, 626

**
** TRIA6 Elements (S6 - 6-node triangular shell)
**
*ELEMENT, TYPE=S6
401, 1295, 1447, 1437, 114, 1296, 1448, 1438, 115
402, 2280, 2268, 2290, 2296, 2281, 2269, 2291, 2297

**
** Element Sets
**
*ELSET, ELSET=ALL_ELEMENTS
1, 2, 3, 4, 5, 6, 7, 8, 9, 10,
101, 102, 103, 104, 105,
201, 202, 203, 204, 205,
301, 302, 303, 304, 305,
401, 402

*ELSET, ELSET=TETRA4_ELEMENTS
1, 2, 3, 4, 5, 6, 7, 8, 9, 10

*ELSET, ELSET=HEXA8_ELEMENTS
101, 102, 103, 104, 105

*ELSET, ELSET=PENTA6_ELEMENTS
201, 202, 203, 204, 205

*ELSET, ELSET=QUAD8_ELEMENTS
301, 302, 303, 304, 305

*ELSET, ELSET=TRIA6_ELEMENTS
401, 402

**
** Material Definition (placeholder)
**
*MATERIAL, NAME=STEEL
*ELASTIC
210000.0, 0.3

**
** Section Assignment (placeholder)
**
*SOLID SECTION, ELSET=ALL_ELEMENTS, MATERIAL=STEEL
1.0

**
** End of INP file
**
